*****************************************************************************
* CDL NETLIST:
* CELL NAME: ALL_CELL
* NETLISTED ON: AUG 20 14:51:26 2004
*****************************************************************************


*****************************************************************************
* GLOBAL NET DECLARATIONS
*****************************************************************************
*.GLOBAL VDD GND


*****************************************************************************
* PIN CONTROL STATEMENT
*****************************************************************************
*.PIN VDD GND


*****************************************************************************
* BIPOLAR DECLARATIONS
*****************************************************************************


*.BIPOLAR
*.RESI = 1.000000
*.RESVAL
*.CAPVAL
*.DIOPERI
*.DIOAREA
*.SCALE METER
*.LDD

*****************************************************************************
* PARAMETER STATEMENT
*****************************************************************************
.PARAM


*******************************************************************************
* SUB-CIRCUIT NETLIST:                                                        *
*                                                                             *
* BLOCK: TG1G                                                                 *
* LAST TIME SAVED: SEP 10 14:41:27 2001                                       *
*******************************************************************************
.SUBCKT TG1G D Q CK CKB NL=0.18U NW=0.24U PL=0.18U PW=0.24U
*.NOPIN VDD GND
MP0 Q CKB D VDD P18 W=PW L=PL
MN0 D CK Q GND N18 W=NW L=NL
.ENDS TG1G


*******************************************************************************
* SUB-CIRCUIT NETLIST:                                                        *
*                                                                             *
* BLOCK: IVG                                                                  *
* LAST TIME SAVED: SEP 10 14:37:09 2001                                       *
*******************************************************************************
.SUBCKT IVG Z A PL=0.18U PW=0.24U NL=0.18U NW=0.24U
MN0 Z A GND GND N18 W=NW L=NL
MP0 VDD A Z VDD P18 W=PW L=PL
.ENDS IVG


*******************************************************************************
* SUB-CIRCUIT NETLIST:                                                        *
*                                                                             *
* BLOCK: XOR3HD4X                                                             *
* LAST TIME SAVED: AUG 30 10:45:44 2002                                       *
*******************************************************************************
.SUBCKT XOR3HD4X Z A B C
XI8 NET13 NET21 NET17 B TG1G NW=2U PW=2U
XI9 NET15 NET21 B NET17 TG1G NW=2U PW=2U
XI5 NET13 NET29 B NET17 TG1G NW=2U PW=2U
XI3 NET15 NET29 NET17 B TG1G NW=2U PW=2U
XI4 NET21 NET6 NET35 C TG1G NW=2U PW=2U
XI2 NET29 NET6 C NET35 TG1G NW=2U PW=2U
XI10 NET35 C IVG PW=0.9U NW=0.6U
XI7 NET13 A IVG PW=3.44U NW=2.4U
XI6 NET15 NET13 IVG PW=3.44U NW=2.4U
XI0 NET17 B IVG PW=1.68U NW=1.18U
XI1 Z NET6 IVG PW=4.8U NW=3.2U
.ENDS XOR3HD4X


*******************************************************************************
* SUB-CIRCUIT NETLIST:                                                        *
*                                                                             *
* BLOCK: XOR3HD2X                                                             *
* LAST TIME SAVED: AUG 30 10:45:40 2002                                       *
*******************************************************************************
.SUBCKT XOR3HD2X Z A B C
XI8 NET13 NET21 NET17 B TG1G NW=1.18U PW=1.18U
XI9 NET15 NET21 B NET17 TG1G NW=1.18U PW=1.18U
XI5 NET13 NET29 B NET17 TG1G NW=1.18U PW=1.18U
XI3 NET15 NET29 NET17 B TG1G NW=1.18U PW=1.18U
XI4 NET21 NET6 NET35 C TG1G NW=1.18U PW=1.18U
XI2 NET29 NET6 C NET35 TG1G NW=1.18U PW=1.18U
XI10 NET35 C IVG PW=0.64U NW=0.42U
XI7 NET13 A IVG PW=1.72U NW=1.22U
XI6 NET15 NET13 IVG PW=1.68U NW=1.18U
XI0 NET17 B IVG PW=0.96U NW=0.64U
XI1 Z NET6 IVG PW=2.4U NW=1.6U
.ENDS XOR3HD2X


*******************************************************************************
* SUB-CIRCUIT NETLIST:                                                        *
*                                                                             *
* BLOCK: XOR2HDLX                                                             *
* LAST TIME SAVED: AUG 30 10:45:38 2002                                       *
*******************************************************************************
.SUBCKT XOR2HDLX Z A B
XI4 NET17 NET6 A NET19 TG1G NW=0.42U PW=0.42U
XI2 NET15 NET6 NET19 A TG1G NW=0.42U PW=0.42U
XI8 Z NET6 IVG PW=0.64U NW=0.42U
XI7 NET15 B IVG PW=0.45U NW=0.3U
XI6 NET17 NET15 IVG PW=0.45U NW=0.3U
XI0 NET19 A IVG PW=0.45U NW=0.3U
.ENDS XOR2HDLX


*******************************************************************************
* SUB-CIRCUIT NETLIST:                                                        *
*                                                                             *
* BLOCK: XOR2HD4X                                                             *
* LAST TIME SAVED: AUG 30 10:45:30 2002                                       *
*******************************************************************************
.SUBCKT XOR2HD4X Z A B
XI2 NET11 NET18 NET7 A TG1G NW=2.44U PW=2.5U
XI3 NET9 NET18 A NET7 TG1G NW=2.44U PW=2.5U
XI1 Z NET18 IVG PW=4.8U NW=3.2U
XI0 NET7 A IVG PW=1.14U NW=0.76U
XI6 NET9 NET11 IVG PW=3.44U NW=2.4U
XI7 NET11 B IVG PW=6.48U NW=4.32U
.ENDS XOR2HD4X


*******************************************************************************
* SUB-CIRCUIT NETLIST:                                                        *
*                                                                             *
* BLOCK: XOR2HD2X                                                             *
* LAST TIME SAVED: AUG 30 10:45:28 2002                                       *
*******************************************************************************
.SUBCKT XOR2HD2X Z A B
XI3 NET15 NET6 A NET17 TG1G NW=1.18U PW=1.2U
XI2 NET13 NET6 NET17 A TG1G NW=1.18U PW=1.2U
XI1 Z NET6 IVG PW=2.4U NW=1.6U
XI6 NET15 NET13 IVG PW=1.68U NW=1.18U
XI0 NET17 A IVG PW=0.64U NW=0.42U
XI7 NET13 B IVG PW=3.44U NW=2.32U
.ENDS XOR2HD2X


*******************************************************************************
* SUB-CIRCUIT NETLIST:                                                        *
*                                                                             *
* BLOCK: XOR2HD1X                                                             *
* LAST TIME SAVED: AUG 30 10:45:26 2002                                       *
*******************************************************************************
.SUBCKT XOR2HD1X Z A B
XI4 NET19 NET6 A NET13 TG1G NW=0.6U PW=0.6U
XI2 NET17 NET6 NET13 A TG1G NW=0.6U PW=0.6U
XI8 Z NET6 IVG PW=1.2U NW=0.8U
XI7 NET17 B IVG PW=1.64U NW=1.12U
XI6 NET19 NET17 IVG PW=0.9U NW=0.6U
XI0 NET13 A IVG PW=0.45U NW=0.3U
.ENDS XOR2HD1X


*******************************************************************************
* SUB-CIRCUIT NETLIST:                                                        *
*                                                                             *
* BLOCK: XNOR3HD4X                                                            *
* LAST TIME SAVED: AUG 30 10:45:24 2002                                       *
*******************************************************************************
.SUBCKT XNOR3HD4X Z A B C
XI8 NET13 NET21 NET17 B TG1G NW=2U PW=2U
XI9 NET15 NET21 B NET17 TG1G NW=2U PW=2U
XI5 NET13 NET29 B NET17 TG1G NW=2U PW=2U
XI3 NET15 NET29 NET17 B TG1G NW=2U PW=2U
XI4 NET21 NET6 C NET35 TG1G NW=2U PW=2U
XI2 NET29 NET6 NET35 C TG1G NW=2U PW=2U
XI10 NET35 C IVG PW=0.9U NW=0.6U
XI7 NET13 A IVG PW=3.44U NW=2.4U
XI6 NET15 NET13 IVG PW=3.44U NW=2.4U
XI0 NET17 B IVG PW=1.68U NW=1.18U
XI1 Z NET6 IVG PW=4.8U NW=3.2U
.ENDS XNOR3HD4X


*******************************************************************************
* SUB-CIRCUIT NETLIST:                                                        *
*                                                                             *
* BLOCK: XNOR3HD2X                                                            *
* LAST TIME SAVED: AUG 30 10:45:22 2002                                       *
*******************************************************************************
.SUBCKT XNOR3HD2X Z A B C
XI8 NET13 NET21 NET17 B TG1G NW=1.18U PW=1.18U
XI9 NET15 NET21 B NET17 TG1G NW=1.18U PW=1.18U
XI5 NET13 NET29 B NET17 TG1G NW=1.18U PW=1.18U
XI3 NET15 NET29 NET17 B TG1G NW=1.18U PW=1.18U
XI4 NET21 NET6 C NET35 TG1G NW=1.18U PW=1.18U
XI2 NET29 NET6 NET35 C TG1G NW=1.18U PW=1.18U
XI10 NET35 C IVG PW=0.64U NW=0.42U
XI7 NET13 A IVG PW=1.72U NW=1.22U
XI6 NET15 NET13 IVG PW=1.68U NW=1.18U
XI0 NET17 B IVG PW=0.96U NW=0.64U
XI1 Z NET6 IVG PW=2.4U NW=1.6U
.ENDS XNOR3HD2X


*******************************************************************************
* SUB-CIRCUIT NETLIST:                                                        *
*                                                                             *
* BLOCK: XNOR2HDLX                                                            *
* LAST TIME SAVED: AUG 30 10:45:20 2002                                       *
*******************************************************************************
.SUBCKT XNOR2HDLX Z A B
XI0 NET5 A IVG PW=0.45U NW=0.3U
XI6 NET7 NET9 IVG PW=0.45U NW=0.3U
XI7 NET9 B IVG PW=0.45U NW=0.3U
XI8 Z NET18 IVG PW=0.64U NW=0.42U
XI2 NET9 NET18 A NET5 TG1G NW=0.42U PW=0.42U
XI4 NET7 NET18 NET5 A TG1G NW=0.42U PW=0.42U
.ENDS XNOR2HDLX


*******************************************************************************
* SUB-CIRCUIT NETLIST:                                                        *
*                                                                             *
* BLOCK: XNOR2HD4X                                                            *
* LAST TIME SAVED: AUG 30 10:45:18 2002                                       *
*******************************************************************************
.SUBCKT XNOR2HD4X Z A B
XI4 NET15 NET6 NET17 A TG1G NW=2.44U PW=2.5U
XI2 NET13 NET6 A NET17 TG1G NW=2.44U PW=2.5U
XI7 NET13 B IVG PW=6.48U NW=4.32U
XI6 NET15 NET13 IVG PW=3.44U NW=2.4U
XI0 NET17 A IVG PW=1.14U NW=0.76U
XI1 Z NET6 IVG PW=4.8U NW=3.2U
.ENDS XNOR2HD4X


*******************************************************************************
* SUB-CIRCUIT NETLIST:                                                        *
*                                                                             *
* BLOCK: XNOR2HD2X                                                            *
* LAST TIME SAVED: AUG 30 10:45:17 2002                                       *
*******************************************************************************
.SUBCKT XNOR2HD2X Z A B
XI1 Z NET18 IVG PW=2.4U NW=1.6U
XI0 NET7 A IVG PW=0.64U NW=0.42U
XI6 NET9 NET11 IVG PW=1.68U NW=1.18U
XI7 NET11 B IVG PW=3.44U NW=2.32U
XI2 NET11 NET18 A NET7 TG1G NW=1.18U PW=1.2U
XI4 NET9 NET18 NET7 A TG1G NW=1.18U PW=1.2U
.ENDS XNOR2HD2X


*******************************************************************************
* SUB-CIRCUIT NETLIST:                                                        *
*                                                                             *
* BLOCK: XNOR2HD1X                                                            *
* LAST TIME SAVED: AUG 30 10:45:15 2002                                       *
*******************************************************************************
.SUBCKT XNOR2HD1X Z A B
XI4 NET15 NET19 NET17 A TG1G NW=0.6U PW=0.6U
XI2 NET13 NET19 A NET17 TG1G NW=0.6U PW=0.6U
XI8 Z NET19 IVG PW=1.2U NW=0.8U
XI7 NET13 B IVG PW=1.64U NW=1.12U
XI6 NET15 NET13 IVG PW=0.9U NW=0.6U
XI0 NET17 A IVG PW=0.45U NW=0.3U
.ENDS XNOR2HD1X


*******************************************************************************
* SUB-CIRCUIT NETLIST:                                                        *
*                                                                             *
* BLOCK: TIELHD                                                               *
* LAST TIME SAVED: AUG 30 10:44:06 2002                                       *
*******************************************************************************
.SUBCKT TIELHD Z
MP1 VDD NET5 NET5 VDD P18 W=0.3U L=0.18U
MN1 Z NET5 GND GND N18 W=0.56U L=0.18U
.ENDS TIELHD


*******************************************************************************
* SUB-CIRCUIT NETLIST:                                                        *
*                                                                             *
* BLOCK: TIEHHD                                                               *
* LAST TIME SAVED: AUG 30 10:43:47 2002                                       *
*******************************************************************************
.SUBCKT TIEHHD Z
MN1 NET14 NET14 GND GND N18 W=0.42U L=0.18U
MP1 VDD NET14 Z VDD P18 W=1.2U L=0.18U
.ENDS TIEHHD


*******************************************************************************
* SUB-CIRCUIT NETLIST:                                                        *
*                                                                             *
* BLOCK: NR2G                                                                 *
* LAST TIME SAVED: SEP 28 13:10:43 2001                                       *
*******************************************************************************
.SUBCKT NR2G Z A B PL=0.18U PW=0.24U NL=0.18U NW=0.24U
MN0 Z B GND GND N18 W=NW L=NL
MN2 Z A GND GND N18 W=NW L=NL
MP0 NET21 B Z VDD P18 W=PW L=PL
MP2 VDD A NET21 VDD P18 W=PW L=PL
.ENDS NR2G


*******************************************************************************
* SUB-CIRCUIT NETLIST:                                                        *
*                                                                             *
* BLOCK: RSLATNHDLX                                                           *
* LAST TIME SAVED: AUG 30 10:40:09 2002                                       *
*******************************************************************************
.SUBCKT RSLATNHDLX Q QN RN SN
XI18 NET9 NET49 NET43 NR2G PW=0.84U NW=0.42U
XI17 NET49 NET45 NET9 NR2G PW=0.84U NW=0.42U
XI19 Q NET9 IVG PW=0.64U NW=0.42U
XI20 NET45 RN IVG PW=0.64U NW=0.42U
XI22 NET43 SN IVG PW=0.64U NW=0.42U
XI5 QN NET49 IVG PW=0.64U NW=0.42U
.ENDS RSLATNHDLX


*******************************************************************************
* SUB-CIRCUIT NETLIST:                                                        *
*                                                                             *
* BLOCK: RSLATNHD4X                                                           *
* LAST TIME SAVED: AUG 30 10:40:07 2002                                       *
*******************************************************************************
.SUBCKT RSLATNHD4X Q QN RN SN
XI18 NET9 NET49 NET43 NR2G PW=3.36U NW=1.68U
XI17 NET49 NET45 NET9 NR2G PW=3.36U NW=1.68U
XI19 Q NET9 IVG PW=4.8U NW=3.2U
XI20 NET45 RN IVG PW=1.5U NW=1U
XI22 NET43 SN IVG PW=1.5U NW=1U
XI5 QN NET49 IVG PW=4.8U NW=3.2U
.ENDS RSLATNHD4X


*******************************************************************************
* SUB-CIRCUIT NETLIST:                                                        *
*                                                                             *
* BLOCK: RSLATNHD2X                                                           *
* LAST TIME SAVED: AUG 30 10:40:05 2002                                       *
*******************************************************************************
.SUBCKT RSLATNHD2X Q QN RN SN
XI18 NET9 NET49 NET43 NR2G PW=1.68U NW=0.84U
XI17 NET49 NET45 NET9 NR2G PW=1.68U NW=0.84U
XI19 Q NET9 IVG PW=2.4U NW=1.6U
XI20 NET45 RN IVG PW=0.75U NW=0.5U
XI22 NET43 SN IVG PW=0.75U NW=0.5U
XI5 QN NET49 IVG PW=2.4U NW=1.6U
.ENDS RSLATNHD2X


*******************************************************************************
* SUB-CIRCUIT NETLIST:                                                        *
*                                                                             *
* BLOCK: RSLATNHD1X                                                           *
* LAST TIME SAVED: AUG 30 10:40:03 2002                                       *
*******************************************************************************
.SUBCKT RSLATNHD1X Q QN RN SN
XI18 NET9 NET49 NET43 NR2G PW=1.2U NW=0.6U
XI17 NET49 NET45 NET9 NR2G PW=1.2U NW=0.6U
XI19 Q NET9 IVG PW=1.2U NW=0.8U
XI20 NET45 RN IVG PW=0.64U NW=0.42U
XI22 NET43 SN IVG PW=0.64U NW=0.42U
XI5 QN NET49 IVG PW=1.2U NW=0.8U
.ENDS RSLATNHD1X


*******************************************************************************
* SUB-CIRCUIT NETLIST:                                                        *
*                                                                             *
* BLOCK: ND2G                                                                 *
* LAST TIME SAVED: SEP 28 11:59:32 2001                                       *
*******************************************************************************
.SUBCKT ND2G Z A B PL=0.18U PW=0.24U NL=0.18U NW=0.24U
MN2 NET15 A GND GND N18 W=NW L=NL
MN0 Z B NET15 GND N18 W=NW L=NL
MP2 VDD A Z VDD P18 W=PW L=PL
MP0 VDD B Z VDD P18 W=PW L=PL
.ENDS ND2G


*******************************************************************************
* SUB-CIRCUIT NETLIST:                                                        *
*                                                                             *
* BLOCK: RSLATHDLX                                                            *
* LAST TIME SAVED: AUG 30 10:40:17 2002                                       *
*******************************************************************************
.SUBCKT RSLATHDLX Q QN R S
XI19 QN NET9 IVG PW=0.64U NW=0.42U
XI20 NET45 R IVG PW=0.64U NW=0.42U
XI22 NET43 S IVG PW=0.64U NW=0.42U
XI5 Q NET49 IVG PW=0.64U NW=0.42U
XI18 NET9 NET49 NET43 ND2G PW=0.51U NW=0.42U
XI17 NET49 NET45 NET9 ND2G PW=0.51U NW=0.42U
.ENDS RSLATHDLX


*******************************************************************************
* SUB-CIRCUIT NETLIST:                                                        *
*                                                                             *
* BLOCK: RSLATHD4X                                                            *
* LAST TIME SAVED: AUG 30 10:40:15 2002                                       *
*******************************************************************************
.SUBCKT RSLATHD4X Q QN R S
XI18 NET9 NET49 NET43 ND2G PW=2.84U NW=2.36U
XI17 NET49 NET45 NET9 ND2G PW=2.84U NW=2.36U
XI19 QN NET9 IVG PW=4.8U NW=3.2U
XI20 NET45 R IVG PW=1.56U NW=1.04U
XI22 NET43 S IVG PW=1.56U NW=1.04U
XI5 Q NET49 IVG PW=4.8U NW=3.2U
.ENDS RSLATHD4X


*******************************************************************************
* SUB-CIRCUIT NETLIST:                                                        *
*                                                                             *
* BLOCK: RSLATHD2X                                                            *
* LAST TIME SAVED: AUG 30 10:40:14 2002                                       *
*******************************************************************************
.SUBCKT RSLATHD2X Q QN R S
XI19 QN NET9 IVG PW=2.4U NW=1.6U
XI20 NET45 R IVG PW=0.78U NW=0.52U
XI22 NET43 S IVG PW=0.78U NW=0.52U
XI5 Q NET49 IVG PW=2.4U NW=1.6U
XI18 NET9 NET49 NET43 ND2G PW=1.42U NW=1.18U
XI17 NET49 NET45 NET9 ND2G PW=1.42U NW=1.18U
.ENDS RSLATHD2X


*******************************************************************************
* SUB-CIRCUIT NETLIST:                                                        *
*                                                                             *
* BLOCK: RSLATHD1X                                                            *
* LAST TIME SAVED: AUG 30 10:40:11 2002                                       *
*******************************************************************************
.SUBCKT RSLATHD1X Q QN R S
XI19 QN NET9 IVG PW=1.2U NW=0.8U
XI20 NET45 R IVG PW=0.64U NW=0.42U
XI22 NET43 S IVG PW=0.64U NW=0.42U
XI5 Q NET49 IVG PW=1.2U NW=0.8U
XI18 NET9 NET49 NET43 ND2G PW=0.96U NW=0.8U
XI17 NET49 NET45 NET9 ND2G PW=0.96U NW=0.8U
.ENDS RSLATHD1X


*******************************************************************************
* SUB-CIRCUIT NETLIST:                                                        *
*                                                                             *
* BLOCK: PULLUHD                                                              *
* LAST TIME SAVED: AUG 30 10:40:01 2002                                       *
*******************************************************************************
.SUBCKT PULLUHD Z E
MN0 NET8 E GND GND N18 W=0.42U L=0.18U
MN1 VDD NET8 Z VDD P18 W=1.2U L=0.18U
MP0 VDD E NET8 VDD P18 W=0.64U L=0.18U
.ENDS PULLUHD


*******************************************************************************
* SUB-CIRCUIT NETLIST:                                                        *
*                                                                             *
* BLOCK: PULLDHD                                                              *
* LAST TIME SAVED: AUG 30 10:40:00 2002                                       *
*******************************************************************************
.SUBCKT PULLDHD Z EN
MN1 Z NET8 GND GND N18 W=0.8U L=0.18U
MN0 NET8 EN GND GND N18 W=0.42U L=0.18U
MP0 VDD EN NET8 VDD P18 W=0.64U L=0.18U
.ENDS PULLDHD


*******************************************************************************
* SUB-CIRCUIT NETLIST:                                                        *
*                                                                             *
* BLOCK: OR4HDLX                                                              *
* LAST TIME SAVED: AUG 30 10:39:58 2002                                       *
*******************************************************************************
.SUBCKT OR4HDLX Z A B C D
XI4 Z NET25 IVG PW=0.64U NW=0.42U
MN4 NET25 A GND GND N18 W=0.42U L=0.18U
MN3 NET25 B GND GND N18 W=0.42U L=0.18U
MN2 NET25 D GND GND N18 W=0.42U L=0.18U
MN0 NET25 C GND GND N18 W=0.42U L=0.18U
MP4 NET38 D NET25 VDD P18 W=1.16U L=0.18U
MP3 NET27 C NET38 VDD P18 W=1.16U L=0.18U
MP1 VDD A NET12 VDD P18 W=1.16U L=0.18U
MP2 NET12 B NET27 VDD P18 W=1.16U L=0.18U
.ENDS OR4HDLX


*******************************************************************************
* SUB-CIRCUIT NETLIST:                                                        *
*                                                                             *
* BLOCK: OR4HD4X                                                              *
* LAST TIME SAVED: AUG 30 10:39:56 2002                                       *
*******************************************************************************
.SUBCKT OR4HD4X Z A B C D
XI4 Z NET25 IVG PW=4.8U NW=3.2U
MN4 NET25 A GND GND N18 W=0.6U L=0.18U
MN3 NET25 B GND GND N18 W=0.6U L=0.18U
MN2 NET25 D GND GND N18 W=0.6U L=0.18U
MN0 NET25 C GND GND N18 W=0.6U L=0.18U
MP4 NET38 D NET25 VDD P18 W=1.68U L=0.18U
MP3 NET27 C NET38 VDD P18 W=1.68U L=0.18U
MP1 VDD A NET12 VDD P18 W=1.68U L=0.18U
MP2 NET12 B NET27 VDD P18 W=1.68U L=0.18U
.ENDS OR4HD4X


*******************************************************************************
* SUB-CIRCUIT NETLIST:                                                        *
*                                                                             *
* BLOCK: OR4HD2X                                                              *
* LAST TIME SAVED: AUG 30 10:39:55 2002                                       *
*******************************************************************************
.SUBCKT OR4HD2X Z A B C D
XI4 Z NET25 IVG PW=2.4U NW=1.6U
MN4 NET25 A GND GND N18 W=0.54U L=0.18U
MN3 NET25 B GND GND N18 W=0.54U L=0.18U
MN2 NET25 D GND GND N18 W=0.54U L=0.18U
MN0 NET25 C GND GND N18 W=0.54U L=0.18U
MP4 NET38 D NET25 VDD P18 W=1.48U L=0.18U
MP3 NET27 C NET38 VDD P18 W=1.48U L=0.18U
MP1 VDD A NET12 VDD P18 W=1.48U L=0.18U
MP2 NET12 B NET27 VDD P18 W=1.48U L=0.18U
.ENDS OR4HD2X


*******************************************************************************
* SUB-CIRCUIT NETLIST:                                                        *
*                                                                             *
* BLOCK: OR4HD1X                                                              *
* LAST TIME SAVED: AUG 30 10:39:53 2002                                       *
*******************************************************************************
.SUBCKT OR4HD1X Z A B C D
XI4 Z NET25 IVG PW=1.2U NW=0.8U
MN4 NET25 A GND GND N18 W=0.42U L=0.18U
MN3 NET25 B GND GND N18 W=0.42U L=0.18U
MN2 NET25 D GND GND N18 W=0.42U L=0.18U
MN0 NET25 C GND GND N18 W=0.42U L=0.18U
MP4 NET38 D NET25 VDD P18 W=1.16U L=0.18U
MP3 NET27 C NET38 VDD P18 W=1.16U L=0.18U
MP1 VDD A NET12 VDD P18 W=1.16U L=0.18U
MP2 NET12 B NET27 VDD P18 W=1.16U L=0.18U
.ENDS OR4HD1X


*******************************************************************************
* SUB-CIRCUIT NETLIST:                                                        *
*                                                                             *
* BLOCK: OR3HDLX                                                              *
* LAST TIME SAVED: AUG 30 10:39:51 2002                                       *
*******************************************************************************
.SUBCKT OR3HDLX Z A B C
XI4 Z NET22 IVG PW=0.64U NW=0.42U
MN3 NET22 A GND GND N18 W=0.42U L=0.18U
MN2 NET22 C GND GND N18 W=0.42U L=0.18U
MN0 NET22 B GND GND N18 W=0.42U L=0.18U
MP3 NET27 C NET22 VDD P18 W=1.0U L=0.18U
MP1 VDD A NET12 VDD P18 W=1.0U L=0.18U
MP2 NET12 B NET27 VDD P18 W=1.0U L=0.18U
.ENDS OR3HDLX


*******************************************************************************
* SUB-CIRCUIT NETLIST:                                                        *
*                                                                             *
* BLOCK: OR3HD4X                                                              *
* LAST TIME SAVED: AUG 30 10:39:49 2002                                       *
*******************************************************************************
.SUBCKT OR3HD4X Z A B C
XI4 Z NET22 IVG PW=4.8U NW=3.2U
MN3 NET22 A GND GND N18 W=0.7U L=0.18U
MN2 NET22 C GND GND N18 W=0.7U L=0.18U
MN0 NET22 B GND GND N18 W=0.7U L=0.18U
MP3 NET27 C NET22 VDD P18 W=1.68U L=0.18U
MP1 VDD A NET12 VDD P18 W=1.68U L=0.18U
MP2 NET12 B NET27 VDD P18 W=1.68U L=0.18U
.ENDS OR3HD4X


*******************************************************************************
* SUB-CIRCUIT NETLIST:                                                        *
*                                                                             *
* BLOCK: OR3HD2X                                                              *
* LAST TIME SAVED: AUG 30 10:39:47 2002                                       *
*******************************************************************************
.SUBCKT OR3HD2X Z A B C
XI4 Z NET22 IVG PW=2.4U NW=1.6U
MN3 NET22 A GND GND N18 W=0.54U L=0.18U
MN2 NET22 C GND GND N18 W=0.54U L=0.18U
MN0 NET22 B GND GND N18 W=0.54U L=0.18U
MP3 NET27 C NET22 VDD P18 W=1.3U L=0.18U
MP1 VDD A NET12 VDD P18 W=1.3U L=0.18U
MP2 NET12 B NET27 VDD P18 W=1.3U L=0.18U
.ENDS OR3HD2X


*******************************************************************************
* SUB-CIRCUIT NETLIST:                                                        *
*                                                                             *
* BLOCK: OR3HD1X                                                              *
* LAST TIME SAVED: AUG 30 10:39:46 2002                                       *
*******************************************************************************
.SUBCKT OR3HD1X Z A B C
XI4 Z NET22 IVG PW=1.2U NW=0.8U
MN3 NET22 A GND GND N18 W=0.42U L=0.18U
MN2 NET22 C GND GND N18 W=0.42U L=0.18U
MN0 NET22 B GND GND N18 W=0.42U L=0.18U
MP3 NET27 C NET22 VDD P18 W=1.0U L=0.18U
MP1 VDD A NET12 VDD P18 W=1.0U L=0.18U
MP2 NET12 B NET27 VDD P18 W=1.0U L=0.18U
.ENDS OR3HD1X


*******************************************************************************
* SUB-CIRCUIT NETLIST:                                                        *
*                                                                             *
* BLOCK: OR2ODHD                                                              *
* LAST TIME SAVED: AUG 30 10:39:33 2002                                       *
*******************************************************************************
.SUBCKT OR2ODHD Z A B
MP4 NET21 B NET9 VDD P18 W=1.6U L=0.18U
MP1 VDD A NET21 VDD P18 W=1.6U L=0.18U
MN2 Z NET9 GND GND N18 W=1.18U L=0.18U M=2
MN3 NET9 A GND GND N18 W=0.8U L=0.18U
MN4 NET9 B GND GND N18 W=0.8U L=0.18U
.ENDS OR2ODHD


*******************************************************************************
* SUB-CIRCUIT NETLIST:                                                        *
*                                                                             *
* BLOCK: OR2HDLX                                                              *
* LAST TIME SAVED: AUG 30 10:39:44 2002                                       *
*******************************************************************************
.SUBCKT OR2HDLX Z A B
XI4 Z NET21 IVG PW=0.64U NW=0.42U
MN2 NET21 B GND GND N18 W=0.42U L=0.18U
MN0 NET21 A GND GND N18 W=0.42U L=0.18U
MP1 VDD A NET12 VDD P18 W=0.84U L=0.18U